
OS:Version,
  {29ca758a-e20d-482b-86ca-684981a0a3b1}, !- Handle
  3.8.0;                                  !- Version Identifier

OS:Site,
  {6203cbe1-a68a-4ecd-aaa4-604e783da525}, !- Handle
  Chicago Ohare Intl Ap,                  !- Name
  41.98,                                  !- Latitude {deg}
  41.98,                                  !- Longitude {deg}
  -6,                                     !- Time Zone {hr}
  201,                                    !- Elevation {m}
  ;                                       !- Terrain

OS:YearDescription,
  {b2a531f4-d27f-4f6f-86d3-eb6e31733548}, !- Handle
  ,                                       !- Calendar Year
  Sunday;                                 !- Day of Week for Start Day

OS:ClimateZones,
  {6a1ef65d-d378-4e47-bd95-f606d1ed087b}, !- Handle
  ASHRAE,                                 !- Climate Zone Institution Name 1
  ANSI/ASHRAE Standard 169,               !- Climate Zone Document Name 1
  2006,                                   !- Climate Zone Document Year 1
  ,                                       !- Climate Zone Value 1
  CEC,                                    !- Climate Zone Institution Name 2
  California Climate Zone Descriptions,   !- Climate Zone Document Name 2
  1995,                                   !- Climate Zone Document Year 2
  ;                                       !- Climate Zone Value 2

OS:Building,
  {ddf07b94-1e19-443a-be5e-2b175b17295d}, !- Handle
  A403-Lab,                               !- Name
  ,                                       !- Building Sector Type
  -0,                                     !- North Axis {deg}
  ,                                       !- Nominal Floor to Floor Height {m}
  {b8dc57dd-68d2-4daf-9b98-1f128452b30d}, !- Space Type Name
  {76d621c3-7c57-449d-861b-71bdee7b7308}, !- Default Construction Set Name
  ;                                       !- Default Schedule Set Name

OS:Facility,
  {692c0ed9-665c-44ca-aec2-8c745ab42a0d}; !- Handle

OS:SimulationControl,
  {bbb25721-595e-469b-9413-dd9a3bbba735}, !- Handle
  ,                                       !- Do Zone Sizing Calculation
  ,                                       !- Do System Sizing Calculation
  ,                                       !- Do Plant Sizing Calculation
  No;                                     !- Run Simulation for Sizing Periods

OS:Sizing:Parameters,
  {70db0b9f-4225-4dca-bcd4-d6dad9e8dfaa}, !- Handle
  1.25,                                   !- Heating Sizing Factor
  1.15;                                   !- Cooling Sizing Factor

OS:Timestep,
  {a89a28db-d608-4f34-a8bd-b67ee145e17c}, !- Handle
  12;                                     !- Number of Timesteps per Hour

OS:ShadowCalculation,
  {b35bb9d5-0618-484a-82de-9d1fbb8ece09}, !- Handle
  PolygonClipping,                        !- Shading Calculation Method
  ,                                       !- Shading Calculation Update Frequency Method
  20,                                     !- Shading Calculation Update Frequency
  15000,                                  !- Maximum Figures in Shadow Overlap Calculations
  ,                                       !- Polygon Clipping Algorithm
  512,                                    !- Pixel Counting Resolution
  ,                                       !- Sky Diffuse Modeling Algorithm
  No,                                     !- Output External Shading Calculation Results
  No,                                     !- Disable Self-Shading Within Shading Zone Groups
  No;                                     !- Disable Self-Shading From Shading Zone Groups to Other Zones

OS:HeatBalanceAlgorithm,
  {5eb82d38-8d78-46fe-8bbc-42729261310b}, !- Handle
  ConductionTransferFunction,             !- Algorithm
  200;                                    !- Surface Temperature Upper Limit {C}

OS:RunPeriod,
  {5306ed41-d6e1-4ac1-93b8-bd6f42e02d37}, !- Handle
  Run Period 1,                           !- Name
  1,                                      !- Begin Month
  1,                                      !- Begin Day of Month
  12,                                     !- End Month
  31,                                     !- End Day of Month
  ,                                       !- Use Weather File Holidays and Special Days
  ,                                       !- Use Weather File Daylight Saving Period
  ,                                       !- Apply Weekend Holiday Rule
  ,                                       !- Use Weather File Rain Indicators
  ,                                       !- Use Weather File Snow Indicators
  ;                                       !- Number of Times Runperiod to be Repeated

OS:LifeCycleCost:Parameters,
  {83d2bb61-443d-4484-b103-8bea5b9cadda}, !- Handle
  FEMP,                                   !- Analysis Type
  ,                                       !- Discounting Convention
  ,                                       !- Inflation Approach
  ,                                       !- Real Discount Rate
  ,                                       !- Nominal Discount Rate
  ,                                       !- Inflation
  ,                                       !- Base Date Month
  ,                                       !- Base Date Year
  ,                                       !- Service Date Month
  ,                                       !- Service Date Year
  ,                                       !- Length of Study Period in Years
  ,                                       !- Tax Rate
  ,                                       !- Depreciation Method
  Yes;                                    !- Use NIST Fuel Escalation Rates

OS:WeatherFile,
  {36294c25-9df6-4ca9-a840-373ea40c2470}, !- Handle
  Chicago Ohare Intl Ap,                  !- City
  IL,                                     !- State Province Region
  USA,                                    !- Country
  TMY3,                                   !- Data Source
  725300,                                 !- WMO Number
  41.98,                                  !- Latitude {deg}
  -87.92,                                 !- Longitude {deg}
  -6,                                     !- Time Zone {hr}
  201,                                    !- Elevation {m}
  USA_IL_Chicago-OHare.Intl.AP.725300_TMY3.epw, !- Url
  C254B53F,                               !- Checksum
  ,                                       !- Start Date Actual Year
  Sunday;                                 !- Start Day of Week

OS:SizingPeriod:DesignDay,
  {23273c6d-998c-4bdf-b4b6-eb96026f035d}, !- Handle
  Chicago Ohare Intl Ap Ann Clg .4% Condns Enth=>MDB, !- Name
  31.4,                                   !- Maximum Dry-Bulb Temperature {C}
  10.5,                                   !- Daily Dry-Bulb Temperature Range {deltaC}
  98934,                                  !- Barometric Pressure {Pa}
  5.2,                                    !- Wind Speed {m/s}
  230,                                    !- Wind Direction {deg}
  ,                                       !- Sky Clearness
  No,                                     !- Rain Indicator
  No,                                     !- Snow Indicator
  21,                                     !- Day of Month
  7,                                      !- Month
  SummerDesignDay,                        !- Day Type
  No,                                     !- Daylight Saving Time Indicator
  Enthalpy,                               !- Humidity Condition Type
  ,                                       !- Humidity Condition Day Schedule Name
  23,                                     !- Wetbulb or DewPoint at Maximum Dry-Bulb {C}
  ,                                       !- Humidity Ratio at Maximum Dry-Bulb {kgWater/kgDryAir}
  79200,                                  !- Enthalpy at Maximum Dry-Bulb {J/kg}
  DefaultMultipliers,                     !- Dry-Bulb Temperature Range Modifier Type
  ,                                       !- Dry-Bulb Temperature Range Modifier Day Schedule Name
  ASHRAETau,                              !- Solar Model Indicator
  ,                                       !- Beam Solar Day Schedule Name
  ,                                       !- Diffuse Solar Day Schedule Name
  0.455,                                  !- ASHRAE Clear Sky Optical Depth for Beam Irradiance {dimensionless}
  2.05;                                   !- ASHRAE Clear Sky Optical Depth for Diffuse Irradiance {dimensionless}

OS:SizingPeriod:DesignDay,
  {a0c21b4d-5288-48bc-bfc1-f5ea3dcfb0a1}, !- Handle
  Chicago Ohare Intl Ap Ann Clg .4% Condns DP=>MDB, !- Name
  28.9,                                   !- Maximum Dry-Bulb Temperature {C}
  10.5,                                   !- Daily Dry-Bulb Temperature Range {deltaC}
  98934,                                  !- Barometric Pressure {Pa}
  5.2,                                    !- Wind Speed {m/s}
  230,                                    !- Wind Direction {deg}
  ,                                       !- Sky Clearness
  No,                                     !- Rain Indicator
  No,                                     !- Snow Indicator
  21,                                     !- Day of Month
  7,                                      !- Month
  SummerDesignDay,                        !- Day Type
  No,                                     !- Daylight Saving Time Indicator
  Dewpoint,                               !- Humidity Condition Type
  ,                                       !- Humidity Condition Day Schedule Name
  23.8,                                   !- Wetbulb or DewPoint at Maximum Dry-Bulb {C}
  ,                                       !- Humidity Ratio at Maximum Dry-Bulb {kgWater/kgDryAir}
  ,                                       !- Enthalpy at Maximum Dry-Bulb {J/kg}
  DefaultMultipliers,                     !- Dry-Bulb Temperature Range Modifier Type
  ,                                       !- Dry-Bulb Temperature Range Modifier Day Schedule Name
  ASHRAETau,                              !- Solar Model Indicator
  ,                                       !- Beam Solar Day Schedule Name
  ,                                       !- Diffuse Solar Day Schedule Name
  0.455,                                  !- ASHRAE Clear Sky Optical Depth for Beam Irradiance {dimensionless}
  2.05;                                   !- ASHRAE Clear Sky Optical Depth for Diffuse Irradiance {dimensionless}

OS:SizingPeriod:DesignDay,
  {70199d01-b1f7-449c-8a97-e1c9366ec011}, !- Handle
  Chicago Ohare Intl Ap Ann Clg .4% Condns WB=>MDB, !- Name
  31.2,                                   !- Maximum Dry-Bulb Temperature {C}
  10.5,                                   !- Daily Dry-Bulb Temperature Range {deltaC}
  98934,                                  !- Barometric Pressure {Pa}
  5.2,                                    !- Wind Speed {m/s}
  230,                                    !- Wind Direction {deg}
  ,                                       !- Sky Clearness
  No,                                     !- Rain Indicator
  No,                                     !- Snow Indicator
  21,                                     !- Day of Month
  7,                                      !- Month
  SummerDesignDay,                        !- Day Type
  No,                                     !- Daylight Saving Time Indicator
  Wetbulb,                                !- Humidity Condition Type
  ,                                       !- Humidity Condition Day Schedule Name
  25.5,                                   !- Wetbulb or DewPoint at Maximum Dry-Bulb {C}
  ,                                       !- Humidity Ratio at Maximum Dry-Bulb {kgWater/kgDryAir}
  ,                                       !- Enthalpy at Maximum Dry-Bulb {J/kg}
  DefaultMultipliers,                     !- Dry-Bulb Temperature Range Modifier Type
  ,                                       !- Dry-Bulb Temperature Range Modifier Day Schedule Name
  ASHRAETau,                              !- Solar Model Indicator
  ,                                       !- Beam Solar Day Schedule Name
  ,                                       !- Diffuse Solar Day Schedule Name
  0.455,                                  !- ASHRAE Clear Sky Optical Depth for Beam Irradiance {dimensionless}
  2.05;                                   !- ASHRAE Clear Sky Optical Depth for Diffuse Irradiance {dimensionless}

OS:SizingPeriod:DesignDay,
  {c6535504-24d4-4d02-99f8-6726eef7b0f3}, !- Handle
  Chicago Ohare Intl Ap Ann Clg .4% Condns DB=>MWB, !- Name
  33.3,                                   !- Maximum Dry-Bulb Temperature {C}
  10.5,                                   !- Daily Dry-Bulb Temperature Range {deltaC}
  98934,                                  !- Barometric Pressure {Pa}
  5.2,                                    !- Wind Speed {m/s}
  230,                                    !- Wind Direction {deg}
  ,                                       !- Sky Clearness
  No,                                     !- Rain Indicator
  No,                                     !- Snow Indicator
  21,                                     !- Day of Month
  7,                                      !- Month
  SummerDesignDay,                        !- Day Type
  No,                                     !- Daylight Saving Time Indicator
  Wetbulb,                                !- Humidity Condition Type
  ,                                       !- Humidity Condition Day Schedule Name
  23.7,                                   !- Wetbulb or DewPoint at Maximum Dry-Bulb {C}
  ,                                       !- Humidity Ratio at Maximum Dry-Bulb {kgWater/kgDryAir}
  ,                                       !- Enthalpy at Maximum Dry-Bulb {J/kg}
  DefaultMultipliers,                     !- Dry-Bulb Temperature Range Modifier Type
  ,                                       !- Dry-Bulb Temperature Range Modifier Day Schedule Name
  ASHRAETau,                              !- Solar Model Indicator
  ,                                       !- Beam Solar Day Schedule Name
  ,                                       !- Diffuse Solar Day Schedule Name
  0.455,                                  !- ASHRAE Clear Sky Optical Depth for Beam Irradiance {dimensionless}
  2.05;                                   !- ASHRAE Clear Sky Optical Depth for Diffuse Irradiance {dimensionless}

OS:SizingPeriod:DesignDay,
  {3d98a8a5-251f-466d-934c-4016b3667eac}, !- Handle
  Chicago Ohare Intl Ap Ann Htg Wind 99.6% Condns WS=>MCDB, !- Name
  -3.5,                                   !- Maximum Dry-Bulb Temperature {C}
  0,                                      !- Daily Dry-Bulb Temperature Range {deltaC}
  98934,                                  !- Barometric Pressure {Pa}
  12.4,                                   !- Wind Speed {m/s}
  270,                                    !- Wind Direction {deg}
  0,                                      !- Sky Clearness
  No,                                     !- Rain Indicator
  No,                                     !- Snow Indicator
  21,                                     !- Day of Month
  1,                                      !- Month
  WinterDesignDay,                        !- Day Type
  No,                                     !- Daylight Saving Time Indicator
  Wetbulb,                                !- Humidity Condition Type
  ,                                       !- Humidity Condition Day Schedule Name
  -3.5,                                   !- Wetbulb or DewPoint at Maximum Dry-Bulb {C}
  ,                                       !- Humidity Ratio at Maximum Dry-Bulb {kgWater/kgDryAir}
  ,                                       !- Enthalpy at Maximum Dry-Bulb {J/kg}
  DefaultMultipliers,                     !- Dry-Bulb Temperature Range Modifier Type
  ,                                       !- Dry-Bulb Temperature Range Modifier Day Schedule Name
  ASHRAEClearSky;                         !- Solar Model Indicator

OS:SizingPeriod:DesignDay,
  {96ee94be-4543-46e6-8ef1-1d5437238ab2}, !- Handle
  Chicago Ohare Intl Ap Ann Hum_n 99.6% Condns DP=>MCDB, !- Name
  -19.2,                                  !- Maximum Dry-Bulb Temperature {C}
  0,                                      !- Daily Dry-Bulb Temperature Range {deltaC}
  98934,                                  !- Barometric Pressure {Pa}
  4.9,                                    !- Wind Speed {m/s}
  270,                                    !- Wind Direction {deg}
  0,                                      !- Sky Clearness
  No,                                     !- Rain Indicator
  No,                                     !- Snow Indicator
  21,                                     !- Day of Month
  1,                                      !- Month
  WinterDesignDay,                        !- Day Type
  No,                                     !- Daylight Saving Time Indicator
  Dewpoint,                               !- Humidity Condition Type
  ,                                       !- Humidity Condition Day Schedule Name
  -25.7,                                  !- Wetbulb or DewPoint at Maximum Dry-Bulb {C}
  ,                                       !- Humidity Ratio at Maximum Dry-Bulb {kgWater/kgDryAir}
  ,                                       !- Enthalpy at Maximum Dry-Bulb {J/kg}
  DefaultMultipliers,                     !- Dry-Bulb Temperature Range Modifier Type
  ,                                       !- Dry-Bulb Temperature Range Modifier Day Schedule Name
  ASHRAEClearSky;                         !- Solar Model Indicator

OS:SizingPeriod:DesignDay,
  {32c961bf-3dc3-41cc-985b-26ca000b1207}, !- Handle
  Chicago Ohare Intl Ap Ann Htg 99.6% Condns DB, !- Name
  -20,                                    !- Maximum Dry-Bulb Temperature {C}
  0,                                      !- Daily Dry-Bulb Temperature Range {deltaC}
  98934,                                  !- Barometric Pressure {Pa}
  4.9,                                    !- Wind Speed {m/s}
  270,                                    !- Wind Direction {deg}
  0,                                      !- Sky Clearness
  No,                                     !- Rain Indicator
  No,                                     !- Snow Indicator
  21,                                     !- Day of Month
  1,                                      !- Month
  WinterDesignDay,                        !- Day Type
  No,                                     !- Daylight Saving Time Indicator
  Wetbulb,                                !- Humidity Condition Type
  ,                                       !- Humidity Condition Day Schedule Name
  -20,                                    !- Wetbulb or DewPoint at Maximum Dry-Bulb {C}
  ,                                       !- Humidity Ratio at Maximum Dry-Bulb {kgWater/kgDryAir}
  ,                                       !- Enthalpy at Maximum Dry-Bulb {J/kg}
  DefaultMultipliers,                     !- Dry-Bulb Temperature Range Modifier Type
  ,                                       !- Dry-Bulb Temperature Range Modifier Day Schedule Name
  ASHRAEClearSky;                         !- Solar Model Indicator

OS:DefaultScheduleSet,
  {5d7fb750-935f-4d50-85c3-1136925566e1}, !- Handle
  189.1-2009 - Office - OpenOffice - CZ1-3 Schedule Set, !- Name
  ,                                       !- Hours of Operation Schedule Name
  {b851d6ef-b009-4900-9073-a03d8624e57f}, !- Number of People Schedule Name
  {6f81a10e-2ed8-4826-a8e9-427453661d3b}, !- People Activity Level Schedule Name
  {dfea58d2-7ebd-423f-bc51-9de159ac5fea}, !- Lighting Schedule Name
  {c9970bd8-f3f2-4093-8410-a95253f8c1c4}, !- Electric Equipment Schedule Name
  ,                                       !- Gas Equipment Schedule Name
  ,                                       !- Hot Water Equipment Schedule Name
  {164fc20b-df76-46b8-9ef8-3d9a6029c939}, !- Infiltration Schedule Name
  ,                                       !- Steam Equipment Schedule Name
  ;                                       !- Other Equipment Schedule Name

OS:Schedule:Ruleset,
  {d522fd11-8ac5-4d12-b624-f11b99bd8853}, ! Handle
  Office Work Occ,                        ! Name
  {115fdce8-717e-4c67-b4eb-a08e2ccddaab}, ! Schedule Type Limits Name
  {f7d4f58a-673a-463b-a6db-99284b167be6}, ! Default Day Schedule Name
  {f20b7fc0-122c-4b83-8393-d55be700a8d9}, ! Summer Design Day Schedule Name
  {1343a779-5db0-476f-8fdb-891fe8c54504}; ! Winter Design Day Schedule Name

OS:Schedule:Day,
  {f7d4f58a-673a-463b-a6db-99284b167be6}, !- Handle
  Office Bldg Occ Default Schedule,       !- Name
  {115fdce8-717e-4c67-b4eb-a08e2ccddaab}, !- Schedule Type Limits Name
  No,                                     !- Interpolate to Timestep
  6,                                      !- Hour 1
  0,                                      !- Minute 1
  0,                                      !- Value Until Time 1
  7,                                      !- Hour 2
  0,                                      !- Minute 2
  0.100000001490116,                      !- Value Until Time 2
  8,                                      !- Hour 3
  0,                                      !- Minute 3
  0.200000002980232,                      !- Value Until Time 3
  9,                                      !- Hour 4
  0,                                      !- Minute 4
  0.85,                                   !- Value Until Time 4
  12,                                     !- Hour 5
  0,                                      !- Minute 5
  1,                                      !- Value Until Time 5
  13,                                     !- Hour 6
  0,                                      !- Minute 6
  0.5,                                    !- Value Until Time 6
  17,                                     !- Hour 7
  0,                                      !- Minute 7
  0.8,                                    !- Value Until Time 7
  18,                                     !- Hour 8
  0,                                      !- Minute 8
  0.699999988079071,                      !- Value Until Time 8
  20,                                     !- Hour 9
  0,                                      !- Minute 9
  0.400000005960464,                      !- Value Until Time 9
  23,                                     !- Hour 10
  0,                                      !- Minute 10
  0.2,                                    !- Value Until Time 10
  24,                                     !- Hour 11
  0,                                      !- Minute 11
  0;                                      !- Value Until Time 11

OS:Schedule:Day,
  {f20b7fc0-122c-4b83-8393-d55be700a8d9}, !- Handle
  Office Bldg Occ Summer Design Day,      !- Name
  {115fdce8-717e-4c67-b4eb-a08e2ccddaab}, !- Schedule Type Limits Name
  No,                                     !- Interpolate to Timestep
  6,                                      !- Hour 1
  0,                                      !- Minute 1
  0,                                      !- Value Until Time 1
  22,                                     !- Hour 2
  0,                                      !- Minute 2
  1,                                      !- Value Until Time 2
  24,                                     !- Hour 3
  0,                                      !- Minute 3
  0.050000000000000003;                   !- Value Until Time 3

OS:Schedule:Day,
  {1343a779-5db0-476f-8fdb-891fe8c54504}, !- Handle
  Office Bldg Occ Winter Design Day,      !- Name
  {115fdce8-717e-4c67-b4eb-a08e2ccddaab}, !- Schedule Type Limits Name
  No,                                     !- Interpolate to Timestep
  24,                                     !- Hour 1
  0,                                      !- Minute 1
  0;                                      !- Value Until Time 1

OS:Schedule:Rule,
  {df955322-102a-4981-8b2a-15504aace01c}, !- Handle
  Office Work Occ Rule 1,                 !- Name
  {d522fd11-8ac5-4d12-b624-f11b99bd8853}, !- Schedule Ruleset Name
  0,                                      !- Rule Order
  {23c6c9d0-4418-45ac-8d60-761d415c7ac1}, !- Day Schedule Name
  Yes,                                    !- Apply Sunday
  No,                                     !- Apply Monday
  No,                                     !- Apply Tuesday
  No,                                     !- Apply Wednesday
  No,                                     !- Apply Thursday
  No,                                     !- Apply Friday
  No,                                     !- Apply Saturday
  DateRange,                              !- Date Specification Type
  1,                                      !- Start Month
  1,                                      !- Start Day
  12,                                     !- End Month
  31;                                     !- End Day

OS:Schedule:Rule,
  {479f46b9-ef85-4ad9-a5e8-71ec113a5247}, !- Handle
  Office Work Occ Rule 2,                 !- Name
  {d522fd11-8ac5-4d12-b624-f11b99bd8853}, !- Schedule Ruleset Name
  1,                                      !- Rule Order
  {996e0bd1-f2a0-4e9b-a210-593ed7b83ecb}, !- Day Schedule Name
  No,                                     !- Apply Sunday
  No,                                     !- Apply Monday
  No,                                     !- Apply Tuesday
  No,                                     !- Apply Wednesday
  No,                                     !- Apply Thursday
  No,                                     !- Apply Friday
  Yes,                                    !- Apply Saturday
  DateRange,                              !- Date Specification Type
  1,                                      !- Start Month
  1,                                      !- Start Day
  12,                                     !- End Month
  31;                                     !- End Day

OS:Schedule:Day,
  {23c6c9d0-4418-45ac-8d60-761d415c7ac1}, !- Handle
  Office Bldg Occ Rule 1 Day Schedule,    !- Name
  {115fdce8-717e-4c67-b4eb-a08e2ccddaab}, !- Schedule Type Limits Name
  No,                                     !- Interpolate to Timestep
  24,                                     !- Hour 1
  0,                                      !- Minute 1
  0;                                      !- Value Until Time 1

OS:Schedule:Day,
  {996e0bd1-f2a0-4e9b-a210-593ed7b83ecb}, !- Handle
  Office Bldg Occ Rule 2 Day Schedule,    !- Name
  {115fdce8-717e-4c67-b4eb-a08e2ccddaab}, !- Schedule Type Limits Name
  No,                                     !- Interpolate to Timestep
  6,                                      !- Hour 1
  0,                                      !- Minute 1
  0,                                      !- Value Until Time 1
  8,                                      !- Hour 2
  0,                                      !- Minute 2
  0.100000001490116,                      !- Value Until Time 2
  14,                                     !- Hour 3
  0,                                      !- Minute 3
  0.400000005960464,                      !- Value Until Time 3
  17,                                     !- Hour 4
  0,                                      !- Minute 4
  0.100000001490116,                      !- Value Until Time 4
  24,                                     !- Hour 5
  0,                                      !- Minute 5
  0;                                      !- Value Until Time 5

OS:Schedule:Ruleset,
  {6f81a10e-2ed8-4826-a8e9-427453661d3b}, ! Handle
  Office Activity,                        ! Name
  {082d024b-f2d9-4b21-b1f0-0d3278904021}, ! Schedule Type Limits Name
  {b56fca4b-48df-4651-8a9f-8e05944d966f}, ! Default Day Schedule Name
  {a8c0bc22-0bbc-4d71-acd7-008e937680f8}, ! Summer Design Day Schedule Name
  {b8b582a1-d2f2-4ab7-ab8a-42c88abbac7c}; ! Winter Design Day Schedule Name

OS:Schedule:Day,
  {b56fca4b-48df-4651-8a9f-8e05944d966f}, !- Handle
  Office Activity Default Schedule,       !- Name
  {082d024b-f2d9-4b21-b1f0-0d3278904021}, !- Schedule Type Limits Name
  No,                                     !- Interpolate to Timestep
  24,                                     !- Hour 1
  0,                                      !- Minute 1
  132;                                    !- Value Until Time 1

OS:Schedule:Day,
  {a8c0bc22-0bbc-4d71-acd7-008e937680f8}, !- Handle
  Office Activity Summer Design Day,      !- Name
  {082d024b-f2d9-4b21-b1f0-0d3278904021}, !- Schedule Type Limits Name
  No,                                     !- Interpolate to Timestep
  24,                                     !- Hour 1
  0,                                      !- Minute 1
  132;                                    !- Value Until Time 1

OS:Schedule:Day,
  {b8b582a1-d2f2-4ab7-ab8a-42c88abbac7c}, !- Handle
  Office Activity Winter Design Day,      !- Name
  {082d024b-f2d9-4b21-b1f0-0d3278904021}, !- Schedule Type Limits Name
  No,                                     !- Interpolate to Timestep
  24,                                     !- Hour 1
  0,                                      !- Minute 1
  132;                                    !- Value Until Time 1

OS:Schedule:Ruleset,
  {dfea58d2-7ebd-423f-bc51-9de159ac5fea}, ! Handle
  Office Bldg Light,                      ! Name
  {115fdce8-717e-4c67-b4eb-a08e2ccddaab}, ! Schedule Type Limits Name
  {f4867647-e8c7-4cc1-918d-745b07852484}, ! Default Day Schedule Name
  {b95d0418-b6da-4a25-b0ce-4610a40016fe}, ! Summer Design Day Schedule Name
  {d7c99198-c070-416a-8e17-8bc74e732c74}; ! Winter Design Day Schedule Name

OS:Schedule:Day,
  {f4867647-e8c7-4cc1-918d-745b07852484}, !- Handle
  Office Bldg Light Default Schedule,     !- Name
  {115fdce8-717e-4c67-b4eb-a08e2ccddaab}, !- Schedule Type Limits Name
  No,                                     !- Interpolate to Timestep
  5,                                      !- Hour 1
  0,                                      !- Minute 1
  0.05,                                   !- Value Until Time 1
  7,                                      !- Hour 2